Version 4
SHEET 1 2816 680
WIRE -1136 -896 -1168 -896
WIRE -1024 -896 -1072 -896
WIRE -880 -896 -1024 -896
WIRE -64 -896 -624 -896
WIRE 48 -896 0 -896
WIRE 192 -896 48 -896
WIRE 224 -896 192 -896
WIRE 336 -896 288 -896
WIRE 480 -896 336 -896
WIRE 512 -896 480 -896
WIRE 624 -896 576 -896
WIRE 768 -896 624 -896
WIRE 800 -896 768 -896
WIRE 912 -896 864 -896
WIRE 1056 -896 912 -896
WIRE 1088 -896 1056 -896
WIRE 1200 -896 1152 -896
WIRE 1344 -896 1200 -896
WIRE 1376 -896 1344 -896
WIRE 1488 -896 1440 -896
WIRE 1632 -896 1488 -896
WIRE 1664 -896 1632 -896
WIRE 1776 -896 1728 -896
WIRE 1920 -896 1776 -896
WIRE 1952 -896 1920 -896
WIRE 2064 -896 2016 -896
WIRE 2208 -896 2064 -896
WIRE 2240 -896 2208 -896
WIRE 2352 -896 2304 -896
WIRE 2496 -896 2352 -896
WIRE 2528 -896 2496 -896
WIRE 2640 -896 2592 -896
WIRE 2784 -896 2640 -896
WIRE -1024 -832 -1024 -896
WIRE -880 -832 -880 -896
WIRE 48 -832 48 -896
WIRE 192 -832 192 -896
WIRE 336 -832 336 -896
WIRE 480 -832 480 -896
WIRE 624 -832 624 -896
WIRE 768 -832 768 -896
WIRE 912 -832 912 -896
WIRE 1056 -832 1056 -896
WIRE 1200 -832 1200 -896
WIRE 1344 -832 1344 -896
WIRE 1488 -832 1488 -896
WIRE 1632 -832 1632 -896
WIRE 1776 -832 1776 -896
WIRE 1920 -832 1920 -896
WIRE 2064 -832 2064 -896
WIRE 2208 -832 2208 -896
WIRE 2352 -832 2352 -896
WIRE 2496 -832 2496 -896
WIRE 2640 -832 2640 -896
WIRE 2784 -832 2784 -896
WIRE -624 -816 -624 -896
WIRE -1024 -688 -1024 -768
WIRE -1024 -688 -1168 -688
WIRE -992 -688 -1024 -688
WIRE -880 -688 -880 -768
WIRE -880 -688 -928 -688
WIRE 48 -688 48 -768
WIRE 48 -688 -96 -688
WIRE 80 -688 48 -688
WIRE 192 -688 192 -768
WIRE 192 -688 144 -688
WIRE 336 -688 336 -768
WIRE 336 -688 192 -688
WIRE 368 -688 336 -688
WIRE 480 -688 480 -768
WIRE 480 -688 432 -688
WIRE 624 -688 624 -768
WIRE 624 -688 480 -688
WIRE 656 -688 624 -688
WIRE 768 -688 768 -768
WIRE 768 -688 720 -688
WIRE 912 -688 912 -768
WIRE 912 -688 768 -688
WIRE 944 -688 912 -688
WIRE 1056 -688 1056 -768
WIRE 1056 -688 1008 -688
WIRE 1200 -688 1200 -768
WIRE 1200 -688 1056 -688
WIRE 1232 -688 1200 -688
WIRE 1344 -688 1344 -768
WIRE 1344 -688 1296 -688
WIRE 1488 -688 1488 -768
WIRE 1488 -688 1344 -688
WIRE 1520 -688 1488 -688
WIRE 1632 -688 1632 -768
WIRE 1632 -688 1584 -688
WIRE 1776 -688 1776 -768
WIRE 1776 -688 1632 -688
WIRE 1808 -688 1776 -688
WIRE 1920 -688 1920 -768
WIRE 1920 -688 1872 -688
WIRE 2064 -688 2064 -768
WIRE 2064 -688 1920 -688
WIRE 2096 -688 2064 -688
WIRE 2208 -688 2208 -768
WIRE 2208 -688 2160 -688
WIRE 2352 -688 2352 -768
WIRE 2352 -688 2208 -688
WIRE 2384 -688 2352 -688
WIRE 2496 -688 2496 -768
WIRE 2496 -688 2448 -688
WIRE 2640 -688 2640 -768
WIRE 2640 -688 2496 -688
WIRE 2672 -688 2640 -688
WIRE 2784 -688 2784 -768
WIRE 2784 -688 2736 -688
WIRE -880 -624 -880 -688
WIRE -624 -624 -624 -736
WIRE -96 -624 -96 -688
WIRE 192 -624 192 -688
WIRE 480 -624 480 -688
WIRE 768 -624 768 -688
WIRE 1056 -624 1056 -688
WIRE 1344 -624 1344 -688
WIRE 1632 -624 1632 -688
WIRE 1920 -624 1920 -688
WIRE 2208 -624 2208 -688
WIRE 2496 -624 2496 -688
WIRE 2784 -624 2784 -688
FLAG -96 -624 0
FLAG -624 -624 0
FLAG 192 -624 U1
FLAG 480 -624 U2
FLAG 768 -624 U3
FLAG 1056 -624 U4
FLAG -880 -624 U4
FLAG 1344 -624 U5
FLAG 1632 -624 U6
FLAG 1920 -624 U7
FLAG 2208 -624 U8
FLAG 2496 -624 U9
FLAG 2784 -624 U10
SYMBOL diode 64 -768 R180
WINDOW 0 24 64 Left 2
WINDOW 3 24 0 Left 2
SYMATTR InstName D2
SYMATTR Value BAV99HY
SYMBOL diode 352 -768 R180
WINDOW 0 24 64 Left 2
WINDOW 3 24 0 Left 2
SYMATTR InstName D3
SYMATTR Value BAV99HY
SYMBOL diode 208 -832 M0
SYMATTR InstName D4
SYMATTR Value BAV99HY
SYMBOL diode 640 -768 R180
WINDOW 0 24 64 Left 2
WINDOW 3 24 0 Left 2
SYMATTR InstName D5
SYMATTR Value BAV99HY
SYMBOL diode 496 -832 M0
SYMATTR InstName D6
SYMATTR Value BAV99HY
SYMBOL diode 928 -768 R180
WINDOW 0 24 64 Left 2
WINDOW 3 24 0 Left 2
SYMATTR InstName D7
SYMATTR Value BAV99HY
SYMBOL diode 784 -832 M0
SYMATTR InstName D8
SYMATTR Value BAV99HY
SYMBOL cap 0 -912 R90
WINDOW 0 0 32 VBottom 2
WINDOW 3 32 32 VTop 2
SYMATTR InstName C1
SYMATTR Value 100n
SYMBOL cap 288 -912 R90
WINDOW 0 0 32 VBottom 2
WINDOW 3 32 32 VTop 2
SYMATTR InstName C3
SYMATTR Value 100n
SYMBOL cap 576 -912 R90
WINDOW 0 0 32 VBottom 2
WINDOW 3 32 32 VTop 2
SYMATTR InstName C5
SYMATTR Value 100n
SYMBOL cap 864 -912 R90
WINDOW 0 0 32 VBottom 2
WINDOW 3 32 32 VTop 2
SYMATTR InstName C7
SYMATTR Value 100n
SYMBOL cap 144 -704 R90
WINDOW 0 0 32 VBottom 2
WINDOW 3 32 32 VTop 2
SYMATTR InstName C9
SYMATTR Value 100n
SYMBOL cap 432 -704 R90
WINDOW 0 0 32 VBottom 2
WINDOW 3 32 32 VTop 2
SYMATTR InstName C11
SYMATTR Value 100n
SYMBOL cap 720 -704 R90
WINDOW 0 0 32 VBottom 2
WINDOW 3 32 32 VTop 2
SYMATTR InstName C13
SYMATTR Value 100n
SYMBOL diode 1072 -832 M0
SYMATTR InstName D10
SYMATTR Value BAV99HY
SYMBOL cap 1008 -704 R90
WINDOW 0 0 32 VBottom 2
WINDOW 3 32 32 VTop 2
SYMATTR InstName C18
SYMATTR Value 100n
SYMBOL voltage -624 -832 R0
WINDOW 123 0 0 Left 0
WINDOW 39 0 0 Left 0
SYMATTR InstName V1
SYMATTR Value PULSE(0 50 0 10n 10n 2u 10u)
SYMBOL diode -1008 -768 R180
WINDOW 0 24 64 Left 2
WINDOW 3 24 0 Left 2
SYMATTR InstName D1
SYMATTR Value BAV99HY
SYMBOL cap -1072 -912 R90
WINDOW 0 0 32 VBottom 2
WINDOW 3 32 32 VTop 2
SYMATTR InstName C2
SYMATTR Value 100n
SYMBOL diode -864 -832 M0
SYMATTR InstName D9
SYMATTR Value BAV99HY
SYMBOL cap -928 -704 R90
WINDOW 0 0 32 VBottom 2
WINDOW 3 32 32 VTop 2
SYMATTR InstName C4
SYMATTR Value 100n
SYMBOL diode 1216 -768 R180
WINDOW 0 24 64 Left 2
WINDOW 3 24 0 Left 2
SYMATTR InstName D11
SYMATTR Value BAV99HY
SYMBOL cap 1152 -912 R90
WINDOW 0 0 32 VBottom 2
WINDOW 3 32 32 VTop 2
SYMATTR InstName C6
SYMATTR Value 100n
SYMBOL diode 1360 -832 M0
SYMATTR InstName D12
SYMATTR Value BAV99HY
SYMBOL cap 1296 -704 R90
WINDOW 0 0 32 VBottom 2
WINDOW 3 32 32 VTop 2
SYMATTR InstName C8
SYMATTR Value 100n
SYMBOL diode 1504 -768 R180
WINDOW 0 24 64 Left 2
WINDOW 3 24 0 Left 2
SYMATTR InstName D13
SYMATTR Value BAV99HY
SYMBOL cap 1440 -912 R90
WINDOW 0 0 32 VBottom 2
WINDOW 3 32 32 VTop 2
SYMATTR InstName C10
SYMATTR Value 100n
SYMBOL diode 1648 -832 M0
SYMATTR InstName D14
SYMATTR Value BAV99HY
SYMBOL cap 1584 -704 R90
WINDOW 0 0 32 VBottom 2
WINDOW 3 32 32 VTop 2
SYMATTR InstName C12
SYMATTR Value 100n
SYMBOL diode 1792 -768 R180
WINDOW 0 24 64 Left 2
WINDOW 3 24 0 Left 2
SYMATTR InstName D15
SYMATTR Value BAV99HY
SYMBOL cap 1728 -912 R90
WINDOW 0 0 32 VBottom 2
WINDOW 3 32 32 VTop 2
SYMATTR InstName C14
SYMATTR Value 100n
SYMBOL diode 1936 -832 M0
SYMATTR InstName D16
SYMATTR Value BAV99HY
SYMBOL cap 1872 -704 R90
WINDOW 0 0 32 VBottom 2
WINDOW 3 32 32 VTop 2
SYMATTR InstName C15
SYMATTR Value 100n
SYMBOL diode 2080 -768 R180
WINDOW 0 24 64 Left 2
WINDOW 3 24 0 Left 2
SYMATTR InstName D17
SYMATTR Value BAV99HY
SYMBOL cap 2016 -912 R90
WINDOW 0 0 32 VBottom 2
WINDOW 3 32 32 VTop 2
SYMATTR InstName C16
SYMATTR Value 100n
SYMBOL diode 2224 -832 M0
SYMATTR InstName D18
SYMATTR Value BAV99HY
SYMBOL cap 2160 -704 R90
WINDOW 0 0 32 VBottom 2
WINDOW 3 32 32 VTop 2
SYMATTR InstName C17
SYMATTR Value 100n
SYMBOL diode 2368 -768 R180
WINDOW 0 24 64 Left 2
WINDOW 3 24 0 Left 2
SYMATTR InstName D19
SYMATTR Value BAV99HY
SYMBOL cap 2304 -912 R90
WINDOW 0 0 32 VBottom 2
WINDOW 3 32 32 VTop 2
SYMATTR InstName C19
SYMATTR Value 100n
SYMBOL diode 2512 -832 M0
SYMATTR InstName D20
SYMATTR Value BAV99HY
SYMBOL cap 2448 -704 R90
WINDOW 0 0 32 VBottom 2
WINDOW 3 32 32 VTop 2
SYMATTR InstName C20
SYMATTR Value 100n
SYMBOL diode 2656 -768 R180
WINDOW 0 24 64 Left 2
WINDOW 3 24 0 Left 2
SYMATTR InstName D21
SYMATTR Value BAV99HY
SYMBOL cap 2592 -912 R90
WINDOW 0 0 32 VBottom 2
WINDOW 3 32 32 VTop 2
SYMATTR InstName C21
SYMATTR Value 100n
SYMBOL diode 2800 -832 M0
SYMATTR InstName D22
SYMATTR Value BAV99HY
SYMBOL cap 2736 -704 R90
WINDOW 0 0 32 VBottom 2
WINDOW 3 32 32 VTop 2
SYMATTR InstName C22
SYMATTR Value 100n
TEXT -658 -600 Left 2 !.tran 5m
